#------------------------------------------------------------------------------
#                  Harvard-NASA Emissions Component (HEMCO)                   !
#------------------------------------------------------------------------------
#BOP
#
# !MODULE: HEMCO_Config.rc
#
# !DESCRIPTION: Contains configuration information for HEMCO. Define the
#  emissions inventories and corresponding file paths here. Entire
#  configuration files can be inserted into this configuration file with
#  an '>>>include' statement, e.g. '>>>include HEMCO\_Config\_test.rc'
#  The settings of include-files will be ignored.
#\\
#\\
# !REMARKS:
#  The following tokens will be replaced:
#  (1) ROOT    : Filepath to HEMCO root directory
#  (2) CFDIR   : Filepath to directory of this configuration file.
#  (3) MET     : Met field type (from G-C compilation command)
#  (4) GRID    : Horizontal grid type (from G-C compilation command)
#  (5) SIM     : Simulation type (from G-C compilation command)
#  (6) NEST    : Nested-grid type (CH, EU, NA, SE)
#  (7) LNOX    : String for OTD/LIS lightning NOx files:
#                (a) For GEOS-5 this is either "geos5.1.0" or "geos5.2.0".
#                (b) For other met fields, this is the same as MET.
#  (8) LEVRED  : String w/ the # of levels in the reduced GEOS-Chem grid
#                as used in some filenames (e.g. "23L", "30L", "47L")
#  (9) LEVFULL : String w/ the # of levels in the full GEOS-Chem grid
#                as used in some filenames (e.g. "55L", "72L")
#
# !REVISION HISTORY:
#  09 Mar 2021 - P. Campbell - Initial UFS-CMAQ HEMCO Configuration File for
#                              CEDS2019-NEI2016v1-OMI-HTAP2019-EDGAR-HTAP2010
#  15 Jun 2022 - P. Campbell - Added MEGANv2.1 sa extension calcultaions
#  04 Oct 2022 - B. Baker    - Remove point sources
#  30 Aug 2024 - P. Campbell - Change to NEMO/NEI2019
#  18 Oct 2024 - P. Campbell - Updated to 2018 HTAPv3 PMC and PM2.5 emissions
#  18 Oct 2024 - P. Campbell - Updated to using CAMS-TEMPO weights for global emissions

#------------------------------------------------------------------------------
#BOC
###############################################################################
### BEGIN SECTION SETTINGS
###############################################################################

ROOT                        : input
GridFile                    : HEMCO_sa_Grid.rc
SpecFile                    : HEMCO_sa_Spec.rc
TimeFile                    : HEMCO_sa_Time.rc
DiagnFile                   : HEMCO_sa_Diagn.rc
DiagnPrefix                 : output/NEXUS.merged_nei2019_meganv21_pre
DiagnFreq                   : Hourly
Logfile                     : NEXUS.log
Unit tolerance              : 2
Negative values             : 1
Verbose                     : 10
Warnings                    : 1
Mask fractions              : true
MET                         : geosfp
RES                         : 4x5
PBL dry deposition          : False
SINTOK                      : 0.5
Cap time shift              : true
#

### END SECTION SETTINGS ###

###############################################################################
### BEGIN SECTION EXTENSION SWITCHES
###############################################################################
###
### This section lists all emission extensions available to HEMCO and whether
### they shall be used or not. Extension 'base' must have extension number
### zero, all other extension numbers can be freely chosen. Data fields in
### section 'base emissions' will only be read if the corresponding extension
### (identified by ExtNr) is enabled. Similarly, fields grouped into data
### collections ('(((CollectionName', ')))CollectionName') are only considered
### if the corresponding data collection is enabled in this section. Data
### listed within a disabled extension are always ignored, even if they are
### grouped in an enabled collection (e.g. GFED-4 data will never be considered
### if the GFED extension is disabled, even if the GFED4 option is set to true).
###
### It is possible to define collections that are only evaluated if a
### collection name is *not* enabled. This is achieved by leading the
### collection name with '.not.', e.g. '(((.not.FINN_daily' ...
### '))).not.FINN_daily' for FINN monthly data (only used if daily data is
### not being used).
###
### The ExtNr provided in this section must match with the ExtNr assigned to
### the data listed in the base emissions sections. Otherwise, the listed
### files won't be read!
###
### NOTES:
### --> You can only select one biomass burning option (GFED, QFED, FINN).
###
### --> BOND_BIOMASS must be set to false if GFED, QFED, or FINN is enabled.
###
### --> The biomass burning POA scale factor is the same as for the biofuel
###     and anthro sources.
###
### --> The NAP scale factor is determined as in the original simulation:
###     Obtain NAP emissions using scale factor from Hays 2002 ES&T
###     (0.0253 g NAP/kg DM) and Andreae and Merlet 2001 GBC (92 g CO/kg DM)
###############################################################################
# ExtNr ExtName           on/off  Species
0       Base              : on    *
    --> HEMCO_RESTART     :       true
    --> AEIC              :       false
    --> BIOFUEL           :       false
    --> BOND              :       false
    --> BRAVO             :       false
    --> CAC               :       false
    --> C2H6              :       false
    --> EDGAR             :       false
    --> HTAP              :  on   true
    --> EMEP              :       false
    --> GEIA              :       false
    --> LIANG_BROMOCARB   :       false
    --> NEI2005           :       false
    --> NEMO-NEI2019_AR   :  on   true
    --> RETRO             :       false
    --> SHIP              :       false
    --> MIX               :       false
    --> STREETS           :       false
    --> VOLCANO           :       false
    --> RCP_3PD           :       false
    --> RCP_45            :       false
    --> RCP_60            :       false
    --> RCP_85            :       false
    --> QFED2             :       false
    --> +UValbedo+        :       false
    --> +TOMS_SBUV_O3+    :       false
    --> +LinStratChem+    :       false
    --> CEDS              :  on   true
    --> OMI_HTAP_SO2      :  on   true
    --> Yuan_XLAI         :  on   false
    --> MODIS_XLAI        :       false
    --> OFFLINE_SOILNOX   :  on   true
# -----------------------------------------------------------------------------
100     Custom            : off   -
101     SeaFlux           : off   DMS/ACET
102     ParaNOx           : off   NO/NO2/O3/HNO3
    --> LUT data format   :       nc
    --> LUT source dir    :       $ROOT/PARANOX/v2015-02
103     LightNOx          : off   NO
    --> OTD-LIS factors   :       true
    --> CDF table         :       $ROOT/LIGHTNOX/v2014-07/light_dist.ott2010.dat
104     SoilNOx           : off   NO
    --> Use fertilizer NOx:       true
105     DustDead          : off   DST1/DST2/DST3/DST4
106     DustGinoux        : off   DST1/DST2/DST3/DST4
107     SeaSalt           : off   SALA/SALC/Br2
    --> SALA lower radius :       0.01
    --> SALA upper radius :       0.5
    --> SALC lower radius :       0.5
    --> SALC upper radius :       8.0
    --> Emit Br2          :       true
    --> Br2 scaling       :       1.0
108     MEGAN             : on    ISOP/ACET/PRPE/C2H4/ALD2/EOH/MOH/MTPA/MTPO/LIMO/SESQ
    --> Isoprene scaling  :       1.0
    --> CO2 inhibition    :       true
    --> CO2 conc (ppmv)   :       411.0
    --> Isoprene to SOAP  :       0.015
    --> Isoprene to SOAS  :       0.015
110     MEGAN_SOA         : off   MTPA/MTPO/LIMO/SESQ
111     GFED              : off   NO/CO/ALK4/ACET/MEK/ALD2/PRPE/C3H8/CH2O/C2H6/SO2/NH3/BCPO/BCPI/OCPO/OCPI/POA1/NAP
    --> GFED3             :       false
    --> GFED4             :       true
    --> GFED_daily        :       false
    --> GFED_3hourly      :       false
    --> CO scale factor   :       1.05
    --> POA scale factor  :       1.27
    --> NAP scale factor  :       2.75e-4
    --> hydrophilic BC    :       0.2
    --> hydrophilic OC    :       0.5
114     FINN              : off   NO/CO/ALK4/ACET/MEK/ALD2/PRPE/C3H8/CH2O/C2H6/SO2/NH3/BCPI/BCPO/OCPI/OCPO/GLYC/HAC
    --> FINN_daily        :       false
    --> CO scale factor   :       1.0
    --> hydrophilic BC    :       0.2
    --> hydrophilic OC    :       0.5

### END SECTION EXTENSION SWITCHES ###

###############################################################################
### BEGIN SECTION BASE EMISSIONS
###############################################################################

# ExtNr	Name sourceFile	sourceVar sourceTime C/R/E SrcDim SrcUnit Species ScalIDs Cat Hier
0 UNIFORM 1.0 - * C xy kg/m2/s NO - 1 5


#=============================================================================
# --- Offline SOILNOX ---
#=============================================================================
(((OFFLINE_SOILNOX
0 SOILNOX_NO  $ROOT/OFFLINE_SOILNOX/v2021-12/0.25x0.3125/spring_only/2021/$MM/soilnox_025.2021$MM$DD.nc SOIL_NOx 1980-2021/1-12/1-31/$HH C xy kg/m2/s NOT - 2 1
)))OFFLINE_SOILNOX

#==============================================================================
# --- NOAA GMD monthly mean surface CH4 ---
#==============================================================================
* NOAA_GMD_CH4 $ROOT/NOAA_GMD/v2018-01/monthly.gridded.surface.methane.1979-2020.1x1.nc SFC_CH4 1979-2020/1-12/1/0 C xy ppbv * - 1 1

#==============================================================================
# --- CEDS ---
#==============================================================================
(((CEDS
0 CEDS_PEC__A $ROOT/CEDS/v2021-06/2019/BC-em-anthro_input4MIPs_emissions_CMIP_CEDS-2021-02-05_gn_201901-201912_agr_fixtime.nc BC_em_anthro 2019/1-12/1/0 C xyz kg/m2/s PEC 25     1 1
0 CEDS_PEC__B $ROOT/CEDS/v2021-06/2019/BC-em-anthro_input4MIPs_emissions_CMIP_CEDS-2021-02-05_gn_201901-201912_ene_fixtime.nc BC_em_anthro 2019/1-12/1/0 C xyz kg/m2/s PEC 35/44     1 1
0 CEDS_PEC__C $ROOT/CEDS/v2021-06/2019/BC-em-anthro_input4MIPs_emissions_CMIP_CEDS-2021-02-05_gn_201901-201912_ind_fixtime.nc BC_em_anthro 2019/1-12/1/0 C xyz kg/m2/s PEC 25     1 1
0 CEDS_PEC__D $ROOT/CEDS/v2021-06/2019/BC-em-anthro_input4MIPs_emissions_CMIP_CEDS-2021-02-05_gn_201901-201912_res_com_oth_fixtime.nc BC_em_anthro 2019/1-12/1/0 C xyz kg/m2/s PEC 28/46     1 1
0 CEDS_PEC__E $ROOT/CEDS/v2021-06/2019/BC-em-anthro_input4MIPs_emissions_CMIP_CEDS-2021-02-05_gn_201901-201912_road_fixtime.nc BC_em_anthro 2019/1-12/1/0 C xyz kg/m2/s PEC 37/48     1 1
0 CEDS_PEC__F $ROOT/CEDS/v2021-06/2019/BC-em-anthro_input4MIPs_emissions_CMIP_CEDS-2021-02-05_gn_201901-201912_shp_fixtime.nc BC_em_anthro 2019/1-12/1/0 C xyz kg/m2/s PEC 25     1 1
0 CEDS_PEC__G $ROOT/CEDS/v2021-06/2019/BC-em-anthro_input4MIPs_emissions_CMIP_CEDS-2021-02-05_gn_201901-201912_slv_fixtime.nc BC_em_anthro 2019/1-12/1/0 C xyz kg/m2/s PEC 25     1 1
0 CEDS_PEC__H $ROOT/CEDS/v2021-06/2019/BC-em-anthro_input4MIPs_emissions_CMIP_CEDS-2021-02-05_gn_201901-201912_wst_fixtime.nc BC_em_anthro 2019/1-12/1/0 C xyz kg/m2/s PEC 25     1 1

0 CEDS_POC__A $ROOT/CEDS/v2021-06/2019/OC-em-anthro_input4MIPs_emissions_CMIP_CEDS-2021-02-05_gn_201901-201912_agr_fixtime.nc OC_em_anthro 2019/1-12/1/0 C xyz kg/m2/s POC 25     1 1
0 CEDS_POC__B $ROOT/CEDS/v2021-06/2019/OC-em-anthro_input4MIPs_emissions_CMIP_CEDS-2021-02-05_gn_201901-201912_ene_fixtime.nc OC_em_anthro 2019/1-12/1/0 C xyz kg/m2/s POC 35/44     1 1
0 CEDS_POC__C $ROOT/CEDS/v2021-06/2019/OC-em-anthro_input4MIPs_emissions_CMIP_CEDS-2021-02-05_gn_201901-201912_ind_fixtime.nc OC_em_anthro 2019/1-12/1/0 C xyz kg/m2/s POC 25     1 1
0 CEDS_POC__D $ROOT/CEDS/v2021-06/2019/OC-em-anthro_input4MIPs_emissions_CMIP_CEDS-2021-02-05_gn_201901-201912_res_com_oth_fixtime.nc OC_em_anthro 2019/1-12/1/0 C xyz kg/m2/s POC 28/46     1 1
0 CEDS_POC__E $ROOT/CEDS/v2021-06/2019/OC-em-anthro_input4MIPs_emissions_CMIP_CEDS-2021-02-05_gn_201901-201912_road_fixtime.nc OC_em_anthro 2019/1-12/1/0 C xyz kg/m2/s POC 37/48     1 1
0 CEDS_POC__F $ROOT/CEDS/v2021-06/2019/OC-em-anthro_input4MIPs_emissions_CMIP_CEDS-2021-02-05_gn_201901-201912_shp_fixtime.nc OC_em_anthro 2019/1-12/1/0 C xyz kg/m2/s POC 25     1 1
0 CEDS_POC__G $ROOT/CEDS/v2021-06/2019/OC-em-anthro_input4MIPs_emissions_CMIP_CEDS-2021-02-05_gn_201901-201912_slv_fixtime.nc OC_em_anthro 2019/1-12/1/0 C xyz kg/m2/s POC 25     1 1
0 CEDS_POC__H $ROOT/CEDS/v2021-06/2019/OC-em-anthro_input4MIPs_emissions_CMIP_CEDS-2021-02-05_gn_201901-201912_wst_fixtime.nc OC_em_anthro 2019/1-12/1/0 C xyz kg/m2/s POC 25     1 1

0 CEDS_SO2__A $ROOT/CEDS/v2021-06/2019/SO2-em-anthro_input4MIPs_emissions_CMIP_CEDS-2021-02-05_gn_201901-201912_agr_fixtime.nc SO2_em_anthro 2019/1-12/1/0 C xyz kg/m2/s SO2 25/1008     1 1
0 CEDS_SO2__B $ROOT/CEDS/v2021-06/2019/SO2-em-anthro_input4MIPs_emissions_CMIP_CEDS-2021-02-05_gn_201901-201912_ene_fixtime.nc SO2_em_anthro 2019/1-12/1/0 C xyz kg/m2/s SO2 36/45/1008     1 1
0 CEDS_SO2__C $ROOT/CEDS/v2021-06/2019/SO2-em-anthro_input4MIPs_emissions_CMIP_CEDS-2021-02-05_gn_201901-201912_ind_fixtime.nc SO2_em_anthro 2019/1-12/1/0 C xyz kg/m2/s SO2 25/1008     1 1
0 CEDS_SO2__D $ROOT/CEDS/v2021-06/2019/SO2-em-anthro_input4MIPs_emissions_CMIP_CEDS-2021-02-05_gn_201901-201912_res_com_oth_fixtime.nc SO2_em_anthro 2019/1-12/1/0 C xyz kg/m2/s SO2 28/47/1008     1 1
0 CEDS_SO2__E $ROOT/CEDS/v2021-06/2019/SO2-em-anthro_input4MIPs_emissions_CMIP_CEDS-2021-02-05_gn_201901-201912_road_fixtime.nc SO2_em_anthro 2019/1-12/1/0 C xyz kg/m2/s SO2 37/48/1008     1 1
0 CEDS_SO2__F $ROOT/CEDS/v2021-06/2019/SO2-em-anthro_input4MIPs_emissions_CMIP_CEDS-2021-02-05_gn_201901-201912_shp_fixtime.nc SO2_em_anthro 2019/1-12/1/0 C xyz kg/m2/s SO2 25/1008     1 1
0 CEDS_SO2__G $ROOT/CEDS/v2021-06/2019/SO2-em-anthro_input4MIPs_emissions_CMIP_CEDS-2021-02-05_gn_201901-201912_slv_fixtime.nc SO2_em_anthro 2019/1-12/1/0 C xyz kg/m2/s SO2 25/1008     1 1
0 CEDS_SO2__H $ROOT/CEDS/v2021-06/2019/SO2-em-anthro_input4MIPs_emissions_CMIP_CEDS-2021-02-05_gn_201901-201912_wst_fixtime.nc SO2_em_anthro 2019/1-12/1/0 C xyz kg/m2/s SO2 25/1008     1 1

0 CEDS_SULF__A $ROOT/CEDS/v2021-06/2019/SO2-em-anthro_input4MIPs_emissions_CMIP_CEDS-2021-02-05_gn_201901-201912_agr_fixtime.nc SO2_em_anthro 2019/1-12/1/0 C xyz kg/m2/s SULF 25/1099     1 1
0 CEDS_SULF__B $ROOT/CEDS/v2021-06/2019/SO2-em-anthro_input4MIPs_emissions_CMIP_CEDS-2021-02-05_gn_201901-201912_ene_fixtime.nc SO2_em_anthro 2019/1-12/1/0 C xyz kg/m2/s SULF 36/45/1098     1 1
0 CEDS_SULF__C $ROOT/CEDS/v2021-06/2019/SO2-em-anthro_input4MIPs_emissions_CMIP_CEDS-2021-02-05_gn_201901-201912_ind_fixtime.nc SO2_em_anthro 2019/1-12/1/0 C xyz kg/m2/s SULF 25/1097     1 1
0 CEDS_SULF__D $ROOT/CEDS/v2021-06/2019/SO2-em-anthro_input4MIPs_emissions_CMIP_CEDS-2021-02-05_gn_201901-201912_res_com_oth_fixtime.nc SO2_em_anthro 2019/1-12/1/0 C xyz kg/m2/s SULF 28/47/1096     1 1
0 CEDS_SULF__E $ROOT/CEDS/v2021-06/2019/SO2-em-anthro_input4MIPs_emissions_CMIP_CEDS-2021-02-05_gn_201901-201912_road_fixtime.nc SO2_em_anthro 2019/1-12/1/0 C xyz kg/m2/s SULF 37/48/1095     1 1
0 CEDS_SULF__F $ROOT/CEDS/v2021-06/2019/SO2-em-anthro_input4MIPs_emissions_CMIP_CEDS-2021-02-05_gn_201901-201912_shp_fixtime.nc SO2_em_anthro 2019/1-12/1/0 C xyz kg/m2/s SULF 25/1094     1 1
0 CEDS_SULF__G $ROOT/CEDS/v2021-06/2019/SO2-em-anthro_input4MIPs_emissions_CMIP_CEDS-2021-02-05_gn_201901-201912_slv_fixtime.nc SO2_em_anthro 2019/1-12/1/0 C xyz kg/m2/s SULF 25/1097     1 1
0 CEDS_SULF__H $ROOT/CEDS/v2021-06/2019/SO2-em-anthro_input4MIPs_emissions_CMIP_CEDS-2021-02-05_gn_201901-201912_wst_fixtime.nc SO2_em_anthro 2019/1-12/1/0 C xyz kg/m2/s SULF 25/1097     1 1

0 CEDS_CO__A $ROOT/CEDS/v2021-06/2019/CO-em-anthro_input4MIPs_emissions_CMIP_CEDS-2021-02-05_gn_201901-201912_agr_fixtime.nc CO_em_anthro 2019/1-12/1/0 C xyz kg/m2/s CO 25     1 1
0 CEDS_CO__B $ROOT/CEDS/v2021-06/2019/CO-em-anthro_input4MIPs_emissions_CMIP_CEDS-2021-02-05_gn_201901-201912_ene_fixtime.nc CO_em_anthro 2019/1-12/1/0 C xyz kg/m2/s CO 30/39     1 1
0 CEDS_CO__C $ROOT/CEDS/v2021-06/2019/CO-em-anthro_input4MIPs_emissions_CMIP_CEDS-2021-02-05_gn_201901-201912_ind_fixtime.nc CO_em_anthro 2019/1-12/1/0 C xyz kg/m2/s CO 25     1 1
0 CEDS_CO__D $ROOT/CEDS/v2021-06/2019/CO-em-anthro_input4MIPs_emissions_CMIP_CEDS-2021-02-05_gn_201901-201912_res_com_oth_fixtime.nc CO_em_anthro 2019/1-12/1/0 C xyz kg/m2/s CO 28/47     1 1
0 CEDS_CO__E $ROOT/CEDS/v2021-06/2019/CO-em-anthro_input4MIPs_emissions_CMIP_CEDS-2021-02-05_gn_201901-201912_road_fixtime.nc CO_em_anthro 2019/1-12/1/0 C xyz kg/m2/s CO 37/48     1 1
0 CEDS_CO__F $ROOT/CEDS/v2021-06/2019/CO-em-anthro_input4MIPs_emissions_CMIP_CEDS-2021-02-05_gn_201901-201912_shp_fixtime.nc CO_em_anthro 2019/1-12/1/0 C xyz kg/m2/s CO 25     1 1
0 CEDS_CO__G $ROOT/CEDS/v2021-06/2019/CO-em-anthro_input4MIPs_emissions_CMIP_CEDS-2021-02-05_gn_201901-201912_slv_fixtime.nc CO_em_anthro 2019/1-12/1/0 C xyz kg/m2/s CO 25     1 1
0 CEDS_CO__H $ROOT/CEDS/v2021-06/2019/CO-em-anthro_input4MIPs_emissions_CMIP_CEDS-2021-02-05_gn_201901-201912_wst_fixtime.nc CO_em_anthro 2019/1-12/1/0 C xyz kg/m2/s CO 25     1 1

0 CEDS_NH3__A $ROOT/CEDS/v2021-06/2019/NH3-em-anthro_input4MIPs_emissions_CMIP_CEDS-2021-02-05_gn_201901-201912_agr_fixtime.nc NH3_em_anthro 2019/1-12/1/0 C xyz kg/m2/s NH3 25     1 1
0 CEDS_NH3__B $ROOT/CEDS/v2021-06/2019/NH3-em-anthro_input4MIPs_emissions_CMIP_CEDS-2021-02-05_gn_201901-201912_ene_fixtime.nc NH3_em_anthro 2019/1-12/1/0 C xyz kg/m2/s NH3 25     1 1
0 CEDS_NH3__C $ROOT/CEDS/v2021-06/2019/NH3-em-anthro_input4MIPs_emissions_CMIP_CEDS-2021-02-05_gn_201901-201912_ind_fixtime.nc NH3_em_anthro 2019/1-12/1/0 C xyz kg/m2/s NH3 25     1 1
0 CEDS_NH3__D $ROOT/CEDS/v2021-06/2019/NH3-em-anthro_input4MIPs_emissions_CMIP_CEDS-2021-02-05_gn_201901-201912_res_com_oth_fixtime.nc NH3_em_anthro 2019/1-12/1/0 C xyz kg/m2/s NH3 28/47     1 1
0 CEDS_NH3__E $ROOT/CEDS/v2021-06/2019/NH3-em-anthro_input4MIPs_emissions_CMIP_CEDS-2021-02-05_gn_201901-201912_road_fixtime.nc NH3_em_anthro 2019/1-12/1/0 C xyz kg/m2/s NH3 37/48     1 1
0 CEDS_NH3__F $ROOT/CEDS/v2021-06/2019/NH3-em-anthro_input4MIPs_emissions_CMIP_CEDS-2021-02-05_gn_201901-201912_shp_fixtime.nc NH3_em_anthro 2019/1-12/1/0 C xyz kg/m2/s NH3 25     1 1
0 CEDS_NH3__G $ROOT/CEDS/v2021-06/2019/NH3-em-anthro_input4MIPs_emissions_CMIP_CEDS-2021-02-05_gn_201901-201912_slv_fixtime.nc NH3_em_anthro 2019/1-12/1/0 C xyz kg/m2/s NH3 25     1 1
0 CEDS_NH3__H $ROOT/CEDS/v2021-06/2019/NH3-em-anthro_input4MIPs_emissions_CMIP_CEDS-2021-02-05_gn_201901-201912_wst_fixtime.nc NH3_em_anthro 2019/1-12/1/0 C xyz kg/m2/s NH3 25     1 1

0 CEDS_NH3_FERT__A $ROOT/CEDS/v2021-06/2019/NH3-em-anthro_input4MIPs_emissions_CMIP_CEDS-2021-02-05_gn_201901-201912_agr_fixtime.nc NH3_em_anthro 2019/1-12/1/0 C xyz kg/m2/s NH3_FERT 25/1093     1 1
0 CEDS_NH3_FERT__B $ROOT/CEDS/v2021-06/2019/NH3-em-anthro_input4MIPs_emissions_CMIP_CEDS-2021-02-05_gn_201901-201912_ene_fixtime.nc NH3_em_anthro 2019/1-12/1/0 C xyz kg/m2/s NH3_FERT 25/1092     1 1
0 CEDS_NH3_FERT__C $ROOT/CEDS/v2021-06/2019/NH3-em-anthro_input4MIPs_emissions_CMIP_CEDS-2021-02-05_gn_201901-201912_ind_fixtime.nc NH3_em_anthro 2019/1-12/1/0 C xyz kg/m2/s NH3_FERT 25/1091     1 1
0 CEDS_NH3_FERT__D $ROOT/CEDS/v2021-06/2019/NH3-em-anthro_input4MIPs_emissions_CMIP_CEDS-2021-02-05_gn_201901-201912_res_com_oth_fixtime.nc NH3_em_anthro 2019/1-12/1/0 C xyz kg/m2/s NH3_FERT 28/47/1090     1 1
0 CEDS_NH3_FERT__E $ROOT/CEDS/v2021-06/2019/NH3-em-anthro_input4MIPs_emissions_CMIP_CEDS-2021-02-05_gn_201901-201912_road_fixtime.nc NH3_em_anthro 2019/1-12/1/0 C xyz kg/m2/s NH3_FERT 37/48/1089     1 1
0 CEDS_NH3_FERT__F $ROOT/CEDS/v2021-06/2019/NH3-em-anthro_input4MIPs_emissions_CMIP_CEDS-2021-02-05_gn_201901-201912_shp_fixtime.nc NH3_em_anthro 2019/1-12/1/0 C xyz kg/m2/s NH3_FERT 25/1088     1 1
0 CEDS_NH3_FERT__G $ROOT/CEDS/v2021-06/2019/NH3-em-anthro_input4MIPs_emissions_CMIP_CEDS-2021-02-05_gn_201901-201912_slv_fixtime.nc NH3_em_anthro 2019/1-12/1/0 C xyz kg/m2/s NH3_FERT 25/1091     1 1
0 CEDS_NH3_FERT__H $ROOT/CEDS/v2021-06/2019/NH3-em-anthro_input4MIPs_emissions_CMIP_CEDS-2021-02-05_gn_201901-201912_wst_fixtime.nc NH3_em_anthro 2019/1-12/1/0 C xyz kg/m2/s NH3_FERT 25/1091     1 1

0 CEDS_NO__A $ROOT/CEDS/v2021-06/2019/NOx-em-anthro_input4MIPs_emissions_CMIP_CEDS-2021-02-05_gn_201901-201912_agr_fixtime.nc NOx_em_anthro 2019/1-12/1/0 C xyz kg/m2/s NOT 25/999     1 1
0 CEDS_NO__B $ROOT/CEDS/v2021-06/2019/NOx-em-anthro_input4MIPs_emissions_CMIP_CEDS-2021-02-05_gn_201901-201912_ene_fixtime.nc NOx_em_anthro 2019/1-12/1/0 C xyz kg/m2/s NOT 33/42/999     1 1
0 CEDS_NO__C $ROOT/CEDS/v2021-06/2019/NOx-em-anthro_input4MIPs_emissions_CMIP_CEDS-2021-02-05_gn_201901-201912_ind_fixtime.nc NOx_em_anthro 2019/1-12/1/0 C xyz kg/m2/s NOT 25/999     1 1
0 CEDS_NO__D $ROOT/CEDS/v2021-06/2019/NOx-em-anthro_input4MIPs_emissions_CMIP_CEDS-2021-02-05_gn_201901-201912_res_com_oth_fixtime.nc NOx_em_anthro 2019/1-12/1/0 C xyz kg/m2/s NOT 28/47/999     1 1
0 CEDS_NO__E $ROOT/CEDS/v2021-06/2019/NOx-em-anthro_input4MIPs_emissions_CMIP_CEDS-2021-02-05_gn_201901-201912_road_fixtime.nc NOx_em_anthro 2019/1-12/1/0 C xyz kg/m2/s NOT 37/48/999     1 1
0 CEDS_NO__F $ROOT/CEDS/v2021-06/2019/NOx-em-anthro_input4MIPs_emissions_CMIP_CEDS-2021-02-05_gn_201901-201912_shp_fixtime.nc NOx_em_anthro 2019/1-12/1/0 C xyz kg/m2/s NOT 25/999     1 1
0 CEDS_NO__G $ROOT/CEDS/v2021-06/2019/NOx-em-anthro_input4MIPs_emissions_CMIP_CEDS-2021-02-05_gn_201901-201912_slv_fixtime.nc NOx_em_anthro 2019/1-12/1/0 C xyz kg/m2/s NOT 25/999     1 1
0 CEDS_NO__H $ROOT/CEDS/v2021-06/2019/NOx-em-anthro_input4MIPs_emissions_CMIP_CEDS-2021-02-05_gn_201901-201912_wst_fixtime.nc NOx_em_anthro 2019/1-12/1/0 C xyz kg/m2/s NOT 25/999     1 1

0 CEDS_NO2__A $ROOT/CEDS/v2021-06/2019/NOx-em-anthro_input4MIPs_emissions_CMIP_CEDS-2021-02-05_gn_201901-201912_agr_fixtime.nc NOx_em_anthro 2019/1-12/1/0 C xyz kg/m2/s NO2 25/998     1 1
0 CEDS_NO2__B $ROOT/CEDS/v2021-06/2019/NOx-em-anthro_input4MIPs_emissions_CMIP_CEDS-2021-02-05_gn_201901-201912_ene_fixtime.nc NOx_em_anthro 2019/1-12/1/0 C xyz kg/m2/s NO2 33/42/998     1 1
0 CEDS_NO2__C $ROOT/CEDS/v2021-06/2019/NOx-em-anthro_input4MIPs_emissions_CMIP_CEDS-2021-02-05_gn_201901-201912_ind_fixtime.nc NOx_em_anthro 2019/1-12/1/0 C xyz kg/m2/s NO2 25/998     1 1
0 CEDS_NO2__D $ROOT/CEDS/v2021-06/2019/NOx-em-anthro_input4MIPs_emissions_CMIP_CEDS-2021-02-05_gn_201901-201912_res_com_oth_fixtime.nc NOx_em_anthro 2019/1-12/1/0 C xyz kg/m2/s NO2 28/47/998     1 1
0 CEDS_NO2__E $ROOT/CEDS/v2021-06/2019/NOx-em-anthro_input4MIPs_emissions_CMIP_CEDS-2021-02-05_gn_201901-201912_road_fixtime.nc NOx_em_anthro 2019/1-12/1/0 C xyz kg/m2/s NO2 37/48/998     1 1
0 CEDS_NO2__F $ROOT/CEDS/v2021-06/2019/NOx-em-anthro_input4MIPs_emissions_CMIP_CEDS-2021-02-05_gn_201901-201912_shp_fixtime.nc NOx_em_anthro 2019/1-12/1/0 C xyz kg/m2/s NO2 25/998    1 1
0 CEDS_NO2__G $ROOT/CEDS/v2021-06/2019/NOx-em-anthro_input4MIPs_emissions_CMIP_CEDS-2021-02-05_gn_201901-201912_slv_fixtime.nc NOx_em_anthro 2019/1-12/1/0 C xyz kg/m2/s NO2 25/998     1 1
0 CEDS_NO2__H $ROOT/CEDS/v2021-06/2019/NOx-em-anthro_input4MIPs_emissions_CMIP_CEDS-2021-02-05_gn_201901-201912_wst_fixtime.nc NOx_em_anthro 2019/1-12/1/0 C xyz kg/m2/s NO2 25/998     1 1

0 CEDS_VOC_INV__A $ROOT/CEDS/v2021-06/2019/NMVOC-em-anthro_input4MIPs_emissions_CMIP_CEDS-2021-02-05_gn_201901-201912_agr_fixtime.nc NMVOC_em_anthro 2019/1-12/1/0 C xyz kg/m2/s VOC_INV 26     1 1
0 CEDS_VOC_INV__B $ROOT/CEDS/v2021-06/2019/NMVOC-em-anthro_input4MIPs_emissions_CMIP_CEDS-2021-02-05_gn_201901-201912_ene_fixtime.nc NMVOC_em_anthro 2019/1-12/1/0 C xyz kg/m2/s VOC_INV 32/41     1 1
0 CEDS_VOC_INV__C $ROOT/CEDS/v2021-06/2019/NMVOC-em-anthro_input4MIPs_emissions_CMIP_CEDS-2021-02-05_gn_201901-201912_ind_fixtime.nc NMVOC_em_anthro 2019/1-12/1/0 C xyz kg/m2/s VOC_INV 26     1 1
0 CEDS_VOC_INV__D $ROOT/CEDS/v2021-06/2019/NMVOC-em-anthro_input4MIPs_emissions_CMIP_CEDS-2021-02-05_gn_201901-201912_res_com_oth_fixtime.nc NMVOC_em_anthro 2019/1-12/1/0 C xyz kg/m2/s VOC_INV 28/47     1 1
0 CEDS_VOC_INV__E $ROOT/CEDS/v2021-06/2019/NMVOC-em-anthro_input4MIPs_emissions_CMIP_CEDS-2021-02-05_gn_201901-201912_road_fixtime.nc NMVOC_em_anthro 2019/1-12/1/0 C xyz kg/m2/s VOC_INV 37/48     1 1
0 CEDS_VOC_INV__F $ROOT/CEDS/v2021-06/2019/NMVOC-em-anthro_input4MIPs_emissions_CMIP_CEDS-2021-02-05_gn_201901-201912_shp_fixtime.nc NMVOC_em_anthro 2019/1-12/1/0 C xyz kg/m2/s VOC_INV 26    1 1
0 CEDS_VOC_INV__G $ROOT/CEDS/v2021-06/2019/NMVOC-em-anthro_input4MIPs_emissions_CMIP_CEDS-2021-02-05_gn_201901-201912_slv_fixtime.nc NMVOC_em_anthro 2019/1-12/1/0 C xyz kg/m2/s VOC_INV 26     1 1
0 CEDS_VOC_INV__H $ROOT/CEDS/v2021-06/2019/NMVOC-em-anthro_input4MIPs_emissions_CMIP_CEDS-2021-02-05_gn_201901-201912_wst_fixtime.nc NMVOC_em_anthro 2019/1-12/1/0 C xyz kg/m2/s VOC_INV 26     1 1

0 CEDS_ACET__A $ROOT/CEDS/v2021-06/2019/NMVOC-em-anthro_input4MIPs_emissions_CMIP_CEDS-2021-02-05_gn_201901-201912_agr_fixtime.nc NMVOC_em_anthro 2019/1-12/1/0 C xyz kg/m2/s ACET 26/997     1 1
0 CEDS_ACET__B $ROOT/CEDS/v2021-06/2019/NMVOC-em-anthro_input4MIPs_emissions_CMIP_CEDS-2021-02-05_gn_201901-201912_ene_fixtime.nc NMVOC_em_anthro 2019/1-12/1/0 C xyz kg/m2/s ACET 32/41/996     1 1
0 CEDS_ACET__C $ROOT/CEDS/v2021-06/2019/NMVOC-em-anthro_input4MIPs_emissions_CMIP_CEDS-2021-02-05_gn_201901-201912_ind_fixtime.nc NMVOC_em_anthro 2019/1-12/1/0 C xyz kg/m2/s ACET 26/995     1 1
0 CEDS_ACET__D $ROOT/CEDS/v2021-06/2019/NMVOC-em-anthro_input4MIPs_emissions_CMIP_CEDS-2021-02-05_gn_201901-201912_res_com_oth_fixtime.nc NMVOC_em_anthro 2019/1-12/1/0 C xyz kg/m2/s ACET 28/47/994     1 1
0 CEDS_ACET__E $ROOT/CEDS/v2021-06/2019/NMVOC-em-anthro_input4MIPs_emissions_CMIP_CEDS-2021-02-05_gn_201901-201912_road_fixtime.nc NMVOC_em_anthro 2019/1-12/1/0 C xyz kg/m2/s ACET 37/48/993     1 1
0 CEDS_ACET__F $ROOT/CEDS/v2021-06/2019/NMVOC-em-anthro_input4MIPs_emissions_CMIP_CEDS-2021-02-05_gn_201901-201912_shp_fixtime.nc NMVOC_em_anthro 2019/1-12/1/0 C xyz kg/m2/s ACET 26/992    1 1
0 CEDS_ACET__G $ROOT/CEDS/v2021-06/2019/NMVOC-em-anthro_input4MIPs_emissions_CMIP_CEDS-2021-02-05_gn_201901-201912_slv_fixtime.nc NMVOC_em_anthro 2019/1-12/1/0 C xyz kg/m2/s ACET 26/995     1 1
0 CEDS_ACET__H $ROOT/CEDS/v2021-06/2019/NMVOC-em-anthro_input4MIPs_emissions_CMIP_CEDS-2021-02-05_gn_201901-201912_wst_fixtime.nc NMVOC_em_anthro 2019/1-12/1/0 C xyz kg/m2/s ACET 26/995     1 1

0 CEDS_ALD2__A $ROOT/CEDS/v2021-06/2019/NMVOC-em-anthro_input4MIPs_emissions_CMIP_CEDS-2021-02-05_gn_201901-201912_agr_fixtime.nc NMVOC_em_anthro 2019/1-12/1/0 C xyz kg/m2/s ALD2 26/991     1 1
0 CEDS_ALD2__B $ROOT/CEDS/v2021-06/2019/NMVOC-em-anthro_input4MIPs_emissions_CMIP_CEDS-2021-02-05_gn_201901-201912_ene_fixtime.nc NMVOC_em_anthro 2019/1-12/1/0 C xyz kg/m2/s ALD2 32/41/990     1 1
0 CEDS_ALD2__C $ROOT/CEDS/v2021-06/2019/NMVOC-em-anthro_input4MIPs_emissions_CMIP_CEDS-2021-02-05_gn_201901-201912_ind_fixtime.nc NMVOC_em_anthro 2019/1-12/1/0 C xyz kg/m2/s ALD2 26/989     1 1
0 CEDS_ALD2__D $ROOT/CEDS/v2021-06/2019/NMVOC-em-anthro_input4MIPs_emissions_CMIP_CEDS-2021-02-05_gn_201901-201912_res_com_oth_fixtime.nc NMVOC_em_anthro 2019/1-12/1/0 C xyz kg/m2/s ALD2 28/47/988     1 1
0 CEDS_ALD2__E $ROOT/CEDS/v2021-06/2019/NMVOC-em-anthro_input4MIPs_emissions_CMIP_CEDS-2021-02-05_gn_201901-201912_road_fixtime.nc NMVOC_em_anthro 2019/1-12/1/0 C xyz kg/m2/s ALD2 37/48/987     1 1
0 CEDS_ALD2__F $ROOT/CEDS/v2021-06/2019/NMVOC-em-anthro_input4MIPs_emissions_CMIP_CEDS-2021-02-05_gn_201901-201912_shp_fixtime.nc NMVOC_em_anthro 2019/1-12/1/0 C xyz kg/m2/s ALD2 26/986    1 1
0 CEDS_ALD2__G $ROOT/CEDS/v2021-06/2019/NMVOC-em-anthro_input4MIPs_emissions_CMIP_CEDS-2021-02-05_gn_201901-201912_slv_fixtime.nc NMVOC_em_anthro 2019/1-12/1/0 C xyz kg/m2/s ALD2 26/989     1 1
0 CEDS_ALD2__H $ROOT/CEDS/v2021-06/2019/NMVOC-em-anthro_input4MIPs_emissions_CMIP_CEDS-2021-02-05_gn_201901-201912_wst_fixtime.nc NMVOC_em_anthro 2019/1-12/1/0 C xyz kg/m2/s ALD2 26/989     1 1

0 CEDS_ALD2_PRIMARY__A $ROOT/CEDS/v2021-06/2019/NMVOC-em-anthro_input4MIPs_emissions_CMIP_CEDS-2021-02-05_gn_201901-201912_agr_fixtime.nc NMVOC_em_anthro 2019/1-12/1/0 C xyz kg/m2/s ALD2_PRIMARY 26/991     1 1
0 CEDS_ALD2_PRIMARY__B $ROOT/CEDS/v2021-06/2019/NMVOC-em-anthro_input4MIPs_emissions_CMIP_CEDS-2021-02-05_gn_201901-201912_ene_fixtime.nc NMVOC_em_anthro 2019/1-12/1/0 C xyz kg/m2/s ALD2_PRIMARY 32/41/990     1 1
0 CEDS_ALD2_PRIMARY__C $ROOT/CEDS/v2021-06/2019/NMVOC-em-anthro_input4MIPs_emissions_CMIP_CEDS-2021-02-05_gn_201901-201912_ind_fixtime.nc NMVOC_em_anthro 2019/1-12/1/0 C xyz kg/m2/s ALD2_PRIMARY 26/989     1 1
0 CEDS_ALD2_PRIMARY__D $ROOT/CEDS/v2021-06/2019/NMVOC-em-anthro_input4MIPs_emissions_CMIP_CEDS-2021-02-05_gn_201901-201912_res_com_oth_fixtime.nc NMVOC_em_anthro 2019/1-12/1/0 C xyz kg/m2/s ALD2_PRIMARY 28/47/988     1 1
0 CEDS_ALD2_PRIMARY__E $ROOT/CEDS/v2021-06/2019/NMVOC-em-anthro_input4MIPs_emissions_CMIP_CEDS-2021-02-05_gn_201901-201912_road_fixtime.nc NMVOC_em_anthro 2019/1-12/1/0 C xyz kg/m2/s ALD2_PRIMARY 37/48/987     1 1
0 CEDS_ALD2_PRIMARY__F $ROOT/CEDS/v2021-06/2019/NMVOC-em-anthro_input4MIPs_emissions_CMIP_CEDS-2021-02-05_gn_201901-201912_shp_fixtime.nc NMVOC_em_anthro 2019/1-12/1/0 C xyz kg/m2/s ALD2_PRIMARY 26/986    1 1
0 CEDS_ALD2_PRIMARY__G $ROOT/CEDS/v2021-06/2019/NMVOC-em-anthro_input4MIPs_emissions_CMIP_CEDS-2021-02-05_gn_201901-201912_slv_fixtime.nc NMVOC_em_anthro 2019/1-12/1/0 C xyz kg/m2/s ALD2_PRIMARY 26/989     1 1
0 CEDS_ALD2_PRIMARY__H $ROOT/CEDS/v2021-06/2019/NMVOC-em-anthro_input4MIPs_emissions_CMIP_CEDS-2021-02-05_gn_201901-201912_wst_fixtime.nc NMVOC_em_anthro 2019/1-12/1/0 C xyz kg/m2/s ALD2_PRIMARY 26/989     1 1

0 CEDS_ALDX__A $ROOT/CEDS/v2021-06/2019/NMVOC-em-anthro_input4MIPs_emissions_CMIP_CEDS-2021-02-05_gn_201901-201912_agr_fixtime.nc NMVOC_em_anthro 2019/1-12/1/0 C xyz kg/m2/s ALDX 26/985     1 1